8

O   0.00000000000   0.00000000000   2.08524925802
O   0.00000000000   2.08524925802   0.00000000000
O   2.08524925802   0.00000000000   0.00000000000
O   2.08524925802   2.08524925802   2.08524925802
Ni1   0.00000000000   0.00000000000   0.00000000000
Ni1   2.08524925802   2.08524925802   0.00000000000
Ni2   0.00000000000   2.08524925802   2.08524925802
Ni2   2.08524925802   0.00000000000   2.08524925802
lattice vectors
   4.17049851604    0.00000000000    0.00000000000
   0.00000000000    4.17049851604    0.00000000000
   0.00000000000    0.00000000000    4.17049851604
