60

C   6.52438458512   5.27060501957   8.57637505544
C   7.69227868935   5.27060501957   7.82425548573
C   5.67875940226   6.44178002251   8.58595316295
C   6.03701237397   7.56157191828   7.84510506783
C   4.30178738204   5.99356692496   8.60055845397
C   3.33672690270   6.68763575465   7.87844323211
C   4.30178738204   4.54769603189   8.60055845397
C   3.33672690270   3.85362720221   7.87844323211
C   5.67875940226   4.09948293435   8.58595316295
C   6.03701237397   2.97969103857   7.84510506783
C   8.06391984450   6.43669992129   7.05853606170
C   7.25877671826   7.56300069675   7.07123631476
C   8.06391984450   4.10456303557   7.05853606170
C   7.25872380054   2.97826226010   7.07123631476
C   8.65950879525   5.99028602626   5.81893844540
C   8.44154070212   6.68536029264   4.63834408810
C   8.65950879525   4.55092401288   5.81893844540
C   8.44154070212   3.85584974649   4.63834408810
C   5.03464490127   8.27622574147   7.09287966268
C   3.71154312111   7.85484192851   7.11161253594
C   7.01487894181   8.27675491868   5.83973510978
C   7.59808514583   7.85537110572   4.64982723358
C   5.63933570005   8.72263963650   5.85788588811
C   4.90171558592   8.72274547194   4.68321831558
C   2.33377733507   5.96530886191   7.13071583325
C   2.33377733507   4.57590117723   7.13071583325
C   2.94296614014   7.85542402344   5.89127697012
C   3.52611942644   8.27691367184   4.70136909391
C   2.09961641929   6.68536029264   5.90281303331
C   1.88164832616   5.99028602626   4.72221867602
C   3.71154312111   2.68636811063   7.11161253594
C   5.03464490127   2.26498429767   7.09287966268
C   2.09961641929   3.85584974649   5.90281303331
C   1.88164832616   4.55092401288   4.72221867602
C   2.94296614014   2.68578601569   5.89127697012
C   3.52617234417   2.26434928501   4.70142201163
C   5.63933570005   1.81862332036   5.85788588811
C   4.90171558592   1.81846456719   4.68321831558
C   7.01487894181   2.26450803818   5.83973510978
C   7.59808514583   2.68583893342   4.64982723358
C   6.82956108258   7.85484192851   3.42949166775
C   5.50645930242   8.27622574147   3.44827745874
C   8.20737978634   5.96530886191   3.41038837044
C   8.20737978634   4.57590117723   3.41038837044
C   7.20443021872   6.68763575465   2.66266097158
C   6.23936973938   5.99356692496   1.94059866745
C   3.28232748543   7.56305361447   3.46992080666
C   2.47723727692   6.43669992129   3.48262105972
C   4.50409182972   7.56151900056   2.69605205358
C   4.86234480144   6.44178002251   1.95520395846
C   2.47723727692   4.10451011785   3.48262105972
C   3.28232748543   2.97815642466   3.46992080666
C   2.84887843206   5.27060501957   2.71695455341
C   4.01677253630   5.27060501957   1.96478206598
C   5.50645930242   2.26498429767   3.44827745874
C   6.82956108258   2.68636811063   3.42949166775
C   4.50409182972   2.97969103857   2.69605205358
C   4.86234480144   4.09943001663   1.95520395846
C   7.20443021872   3.85362720221   2.66266097158
C   6.23936973938   4.54769603189   1.94059866745
lattice vectors
   9.52518979440    0.00000000000    0.00000000000
   0.00000000000    9.52518979440    0.00000000000
   0.00000000000    0.00000000000    9.52518979440
