60

C   8.11191621752   6.85813665197  0.638716893436
C   9.27981032175   6.85813665197   9.41178711813
C   7.26629103466   8.02931165491  0.648295000951
C   7.62454400637   9.14910355068   9.43263670023
C   5.88931901444   7.58109855736  0.662900291969
C   4.92425853510   8.27516738705   9.46597486451
C   5.88931901444   6.13522766429  0.662900291969
C   4.92425853510   5.44115883461   9.46597486451
C   7.26629103466   5.68701456675  0.648295000951
C   7.62454400637   4.56722267097   9.43263670023
C  0.126261682497   8.02423155369   8.64606769410
C   8.84630835066   9.15053232915   8.65876794716
C  0.126261682497   5.69209466797   8.64606769410
C   8.84625543294   4.56579389250   8.65876794716
C  0.721850633252   7.57781765866   7.40647007780
C  0.503882540124   8.27289192504   6.22587572050
C  0.721850633252   6.13845564528   7.40647007780
C  0.503882540124   5.44338137889   6.22587572050
C   6.62217653367  0.338567579470   8.68041129508
C   5.29907475351   9.44237356091   8.69914416834
C   8.60241057421  0.339096756681   7.42726674218
C   9.18561677823   9.44290273812   6.23735886598
C   7.22686733245  0.784981474501   7.44541752051
C   6.48924721832  0.785087309943   6.27074994798
C   3.92130896747   7.55284049431   8.71824746565
C   3.92130896747   6.16343280963   8.71824746565
C   4.53049777254   9.44295565584   7.47880860252
C   5.11365105884  0.339255509844   6.28890072631
C   3.68714805169   8.27289192504   7.49034466571
C   3.46917995856   7.57781765866   6.30975030842
C   5.29907475351   4.27389974303   8.69914416834
C   6.62217653367   3.85251593007   8.68041129508
C   3.68714805169   5.44338137889   7.49034466571
C   3.46917995856   6.13845564528   6.30975030842
C   4.53049777254   4.27331764809   7.47880860252
C   5.11370397657   3.85188091741   6.28895364403
C   7.22686733245   3.40615495276   7.44541752051
C   6.48924721832   3.40599619959   6.27074994798
C   8.60241057421   3.85203967058   7.42726674218
C   9.18561677823   4.27337056582   6.23735886598
C   8.41709271498   9.44237356091   5.01702330015
C   7.09399093482  0.338567579470   5.03580909114
C  0.269721624345   7.55284049431   4.99792000284
C  0.269721624345   6.16343280963   4.99792000284
C   8.79196185112   8.27516738705   4.25019260398
C   7.82690137178   7.58109855736   3.52813029985
C   4.86985911783   9.15058524687   5.05745243906
C   4.06476890932   8.02423155369   5.07015269212
C   6.09162346212   9.14905063296   4.28358368598
C   6.44987643384   8.02931165491   3.54273559086
C   4.06476890932   5.69204175025   5.07015269212
C   4.86985911783   4.56568805706   5.05745243906
C   4.43641006446   6.85813665197   4.30448618581
C   5.60430416870   6.85813665197   3.55231369838
C   7.09399093482   3.85251593007   5.03580909114
C   8.41709271498   4.27389974303   5.01702330015
C   6.09162346212   4.56722267097   4.28358368598
C   6.44987643384   5.68696164903   3.54273559086
C   8.79196185112   5.44115883461   4.25019260398
C   7.82690137178   6.13522766429   3.52813029985
